57
Generated with GEOM code
Pt          -0.01315693           0.00000004         -21.35098234
C           -2.48482979          -3.43638565         -21.35098234
C           -3.46881956          -2.44475923         -21.35098234
C           -4.81456649          -2.77150307         -21.35098234
H           -5.56946519          -1.99919721         -21.35098234
C           -5.15018536          -4.11306333         -21.35098234
H           -6.19162036          -4.40408088         -21.35098234
C           -4.16598672          -5.10498808         -21.35098234
H           -4.46539197          -6.14395653         -21.35098234
C           -2.82180944          -4.77962283         -21.35098234
H           -2.05489104          -5.53997134         -21.35098234
C           -1.19785319          -2.75218155         -21.35098234
C           -2.77423491          -1.16287379         -21.35098234
N           -1.44322912          -1.41910279         -21.35098234
N           -3.37128731           0.01315169         -21.35098234
C            3.42322690          -2.47167668         -21.35098234
C            2.43160204          -3.45566948         -21.35098234
C            2.75834719          -4.80141676         -21.35098234
H            1.98604320          -5.55631836         -21.35098234
C            4.09990809          -5.13703253         -21.35098234
H            4.39092754          -6.17846707         -21.35098234
C            5.09183138          -4.15283204         -21.35098234
H            6.13080020          -4.45223612         -21.35098234
C            4.76646450          -2.80865514         -21.35098234
H            5.52681180          -2.04173549         -21.35098234
C            2.73901814          -1.18470187         -21.35098234
C            1.14971542          -2.76108873         -21.35098234
N            1.40594089          -1.43010717         -21.35098234
N           -0.02632300          -3.35814848         -21.35098234
C            2.45851048           3.43638366         -21.35098234
C            3.44250527           2.44475905         -21.35098234
C            4.78825311           2.77150503         -21.35098234
H            5.54315469           1.99920093         -21.35098234
C            5.12386835           4.11306543         -21.35098234
H            6.16530258           4.40408621         -21.35098234
C            4.13966665           5.10498863         -21.35098234
H            4.43907064           6.14395756         -21.35098234
C            2.79549039           4.77962187         -21.35098234
H            2.02857114           5.53996966         -21.35098234
C            1.17153781           2.75217262         -21.35098234
C            2.74792574           1.16287237         -21.35098234
N            1.41694656           1.41909807         -21.35098234
N            3.34497992          -0.01317121         -21.35098234
C           -3.44955407           2.47167027         -21.35098234
C           -2.45792524           3.45566099         -21.35098234
C           -2.78466596           4.80140980         -21.35098234
H           -2.01235875           5.55630826         -21.35098234
C           -4.12622503           5.13703019         -21.35098234
H           -4.41724164           6.17846553         -21.35098234
C           -5.11815196           4.15283265         -21.35098234
H           -6.15711952           4.45224150         -21.35098234
C           -4.79279134           2.80865451         -21.35098234
H           -5.55314521           2.04174091         -21.35098234
C           -2.76534301           1.18469448         -21.35098234
C           -1.17604143           2.76107312         -21.35098234
N           -1.43229834           1.43009217         -21.35098234
N           -0.00000025           3.35812231         -21.35098234
