57
Generated with GEOM code
Zn          21.75236710          -3.80424932           -21.35098234
C           17.58289941          -4.48603319           -21.35098234
C           17.58821597          -3.08939630           -21.35098234
C           16.40395414          -2.36865107           -21.35098234
H           16.41556763          -1.28757745           -21.35098234
C           15.21854766          -3.07962414           -21.35098234
H           14.27591612          -2.54843195           -21.35098234
C           15.21320840          -4.47831982           -21.35098234
H           14.26650237          -5.00204936           -21.35098234
C           16.39337780          -5.19808471           -21.35098234
H           16.39770668          -6.27920412           -21.35098234
C           18.97724866          -4.90795327           -21.35098234
C           18.98630144          -2.67830655           -21.35098234
N           19.76238241          -3.79639209           -21.35098234
N           19.38812139          -1.42103994           -21.35098234
C           22.43415179          -7.97371939           -21.35098234
C           21.03751501          -7.96840220           -21.35098234
C           20.31676813          -9.15266295           -21.35098234
H           19.23569449          -9.14104759           -21.35098234
C           21.02774014         -10.33806993           -21.35098234
H           20.49654760         -11.28070125           -21.35098234
C           22.42643603         -10.34341039           -21.35098234
H           22.95016446         -11.29011696           -21.35098234
C           23.14620229          -9.16324177           -21.35098234
H           24.22732162          -9.15891421           -21.35098234
C           22.85607233          -6.57937002           -21.35098234
C           20.62642606          -6.57031704           -21.35098234
N           21.74451213          -5.79423527           -21.35098234
N           19.36915945          -6.16849730           -21.35098234
C           25.92183899          -3.12246784           -21.35098234
C           25.91652211          -4.51910463           -21.35098234
C           27.10078289          -5.23985138           -21.35098234
H           27.08916732          -6.32092504           -21.35098234
C           28.28618985          -4.52887925           -21.35098234
H           29.22882130          -5.06007158           -21.35098234
C           28.29152998          -3.13018335           -21.35098234
H           29.23823669          -2.60645494           -21.35098234
C           27.11136135          -2.41041731           -21.35098234
H           27.10703345          -1.32929795           -21.35098234
C           24.52748951          -2.70054761           -21.35098234
C           24.51843681          -4.93019382           -21.35098234
N           23.74235507          -3.81210757           -21.35098234
N           24.11661699          -6.18746014           -21.35098234
C           21.07058664           0.36521953           -21.35098234
C           22.46722355           0.35990179           -21.35098234
C           23.18797108           1.54416217           -21.35098234
H           24.26904472           1.53254587           -21.35098234
C           22.47699984           2.72956950           -21.35098234
H           23.00819268           3.67220067           -21.35098234
C           21.07830390           2.73491063           -21.35098234
H           20.55457621           3.68161760           -21.35098234
C           20.35853710           1.55474239           -21.35098234
H           19.27741774           1.55041537           -21.35098234
C           20.64866593          -1.02913025           -21.35098234
C           22.87831270          -1.03818348           -21.35098234
N           21.76022669          -1.81426556           -21.35098234
N           24.13557925          -1.44000287           -21.35098234
