57
Generated with GEOM code
Zn          17.99065010          -7.57912332           -21.16555198
C           13.82118241          -8.26090719           -21.16555198
C           13.82649897          -6.86427030           -21.16555198
C           12.64223714          -6.14352507           -21.16555198
H           12.65385063          -5.06245145           -21.16555198
C           11.45683066          -6.85449814           -21.16555198
H           10.51419912          -6.32330595           -21.16555198
C           11.45149140          -8.25319382           -21.16555198
H           10.50478537          -8.77692336           -21.16555198
C           12.63166080          -8.97295871           -21.16555198
H           12.63598968         -10.05407812           -21.16555198
C           15.21553166          -8.68282727           -21.16555198
C           15.22458444          -6.45318055           -21.16555198
N           16.00066541          -7.57126609           -21.16555198
N           15.62640439          -5.19591394           -21.16555198
C           18.67243479         -11.74859339           -21.16555198
C           17.27579801         -11.74327620           -21.16555198
C           16.55505113         -12.92753695           -21.16555198
H           15.47397749         -12.91592159           -21.16555198
C           17.26602314         -14.11294393           -21.16555198
H           16.73483060         -15.05557525           -21.16555198
C           18.66471903         -14.11828439           -21.16555198
H           19.18844746         -15.06499096           -21.16555198
C           19.38448529         -12.93811577           -21.16555198
H           20.46560462         -12.93378821           -21.16555198
C           19.09435533         -10.35424402           -21.16555198
C           16.86470906         -10.34519104           -21.16555198
N           17.98279513          -9.56910927           -21.16555198
N           15.60744245          -9.94337130           -21.16555198
C           22.16012199          -6.89734184           -21.16555198
C           22.15480511          -8.29397863           -21.16555198
C           23.33906589          -9.01472538           -21.16555198
H           23.32745032         -10.09579904           -21.16555198
C           24.52447285          -8.30375325           -21.16555198
H           25.46710430          -8.83494558           -21.16555198
C           24.52981298          -6.90505735           -21.16555198
H           25.47651969          -6.38132894           -21.16555198
C           23.34964435          -6.18529131           -21.16555198
H           23.34531645          -5.10417195           -21.16555198
C           20.76577251          -6.47542161           -21.16555198
C           20.75671981          -8.70506782           -21.16555198
N           19.98063807          -7.58698157           -21.16555198
N           20.35489999          -9.96233414           -21.16555198
C           17.30886964          -3.40965447           -21.16555198
C           18.70550655          -3.41497221           -21.16555198
C           19.42625408          -2.23071183           -21.16555198
H           20.50732772          -2.24232813           -21.16555198
C           18.71528284          -1.04530450           -21.16555198
H           19.24647568          -0.10267333           -21.16555198
C           17.31658690          -1.03996337           -21.16555198
H           16.79285921          -0.09325640           -21.16555198
C           16.59682010          -2.22013161           -21.16555198
H           15.51570074          -2.22445863           -21.16555198
C           16.88694893          -4.80400425           -21.16555198
C           19.11659570          -4.81305748           -21.16555198
N           17.99850969          -5.58913956           -21.16555198
N           20.37386225          -5.21487687           -21.16555198
